%NProcShared=4
%Mem=10GB
%Chk=JACS_3_opt.chk
#P wB97XD/LANL2DZ opt freq=noraman

previous condition without solvent

0 2
O -4.439727 0.769513 -0.858192
N -3.486571 0.042273 -0.064006
C -2.987132 -1.145704 -0.823981
C -1.859775 -1.841898 -0.003745
C -0.794001 -0.906561 0.584912
C -1.489073 0.227965 1.355034
C -2.525669 1.014736 0.512672
C -1.740635 1.885379 -0.532410
C -3.265409 1.937028 1.504854
O -3.475634 1.731027 2.679491
O -3.654667 3.077159 0.874514
C -4.352660 4.073832 1.630182
H -1.412341 -2.657746 -0.595618
H -2.357121 -2.326689 0.858390
H -0.130428 -0.505108 -0.197184
H -0.142281 -1.477250 1.270536
H -0.751233 0.932576 1.774337
H -2.001426 -0.244872 2.213963
H -1.004652 1.228503 -1.024003
H -1.131585 2.597496 0.053827
H -3.728062 4.471535 2.442985
H -5.281803 3.674065 2.061290
H -4.598135 4.885223 0.930926
C -4.213451 -2.095225 -0.903003
C -2.535001 -0.809037 -2.259593
O -3.232182 -0.652734 -3.236369
O -1.175790 -0.755711 -2.302339
C -0.549937 -0.457433 -3.555195
H -5.044258 -1.572504 -1.410125
H -4.552223 -2.259073 0.137272
H 0.533901 -0.454824 -3.374789
H -0.856865 0.529379 -3.931174
H -0.789865 -1.215227 -4.315144
C -2.427735 2.656308 -1.668369
C -4.020604 -3.457501 -1.578613
H -2.967504 1.984919 -2.353999
H -1.656656 3.177523 -2.259920
H -3.143524 3.415655 -1.321244
H -3.735424 -3.350529 -2.637436
H -4.960712 -4.032776 -1.545023
H -3.245660 -4.059052 -1.077823

