%NProcShared=4
%Mem=10GB
%Chk=JACS_1_opt.chk
#P wB97XD/LANL2DZ opt freq=noraman

previous condition without solvent

0 2
O -4.686290 -0.425792 -0.813394
N -3.454616 -0.337880 -0.070085
C -2.582417 -1.527154 -0.405527
C -1.352468 -1.092955 -1.233738
C -0.540330 0.077508 -0.633517
C -1.414786 1.044678 0.201045
C -2.907986 1.047949 -0.185806
C -3.103574 1.665113 -1.598993
C -3.633674 1.971328 0.809668
O -3.202431 2.448847 1.833319
O -4.900114 2.201896 0.354086
C -5.752165 3.049421 1.133867
H -1.695975 -0.787748 -2.237483
H -0.699129 -1.967590 -1.392552
H -0.045346 0.621350 -1.455873
H 0.271870 -0.309134 0.004895
H -1.014422 2.070424 0.139698
H -1.334190 0.741857 1.260477
H -4.162226 1.695051 -1.899971
H -2.567734 1.079720 -2.359908
H -2.700300 2.689065 -1.617360
H -5.325629 4.057296 1.240135
H -5.923777 2.632699 2.137416
H -6.710283 3.117199 0.600049
C -2.144858 -2.180346 0.930045
C -3.332494 -2.598487 -1.229769
O -3.223472 -2.835053 -2.411477
O -4.144482 -3.313579 -0.398399
C -4.936894 -4.361134 -0.968773
H -1.529241 -3.073995 0.749422
H -3.014953 -2.459012 1.545465
H -1.544978 -1.465942 1.515251
H -5.617271 -3.972606 -1.740536
H -5.529143 -4.794222 -0.150538
H -4.306888 -5.143742 -1.415508

