%NProcShared=4
%Mem=10GB
%Chk=JACS_4_opt.chk
#P wB97XD/LANL2DZ opt freq=noraman

previous condition without solvent

0 2
O -4.424826 -0.833880 -0.684805
N -3.210159 -0.062651 -0.631730
C -2.069906 -0.951856 -1.055544
C -0.737106 -0.312950 -0.596229
C -0.643898 0.011579 0.915095
C -2.032302 0.059557 1.587847
C -3.151458 0.663130 0.700763
C -2.889527 2.148960 0.342406
C -4.491395 0.579711 1.459524
O -5.469065 1.275866 1.302003
O -4.436133 -0.426120 2.376719
C -5.597299 -0.685367 3.173403
H -0.643266 0.632744 -1.159608
H 0.110062 -0.940759 -0.916097
H -0.121053 0.973982 1.045945
H -0.026637 -0.742773 1.432657
H -1.975487 0.609286 2.541879
H -2.303141 -0.979019 1.846967
H -3.691106 2.481977 -0.342586
H -1.960972 2.186839 -0.254045
H -6.448641 -0.996944 2.550772
H -5.891423 0.199107 3.756674
H -5.333552 -1.501188 3.860857
C -2.766747 3.158098 1.489140
H -3.682490 3.201228 2.100134
H -2.590686 4.168564 1.084587
H -1.924363 2.916005 2.156200
C -2.149077 -0.968660 -2.607805
C -1.102244 -1.784393 -3.374463
C -2.187447 -2.397096 -0.520907
O -1.584273 -2.901108 0.398540
O -3.071068 -3.090396 -1.295518
C -3.337783 -4.456739 -0.960854
H -2.081727 0.086765 -2.932436
H -3.157000 -1.303785 -2.913336
H -1.286146 -1.711931 -4.459043
H -1.134101 -2.851411 -3.102053
H -0.081248 -1.417732 -3.184843
H -2.431944 -5.075028 -1.039359
H -4.086832 -4.817514 -1.679120
H -3.741619 -4.547154 0.058143

