%NProcShared=4
%Mem=10GB
%Chk=JACS_2_opt.chk
#P wB97XD/LANL2DZ opt freq=noraman

previous condition without solvent

0 2
O -2.113150 1.772499 -1.537674
N -1.684578 0.432575 -1.181525
C -2.795454 -0.528506 -1.423260
C -2.353326 -1.946033 -0.977335
C -1.810684 -2.017565 0.457585
C -0.693502 -0.973180 0.619470
C -1.037665 0.476170 0.162734
C 0.284896 1.253850 -0.027136
C -1.882665 1.220770 1.215357
C -3.023767 -0.548567 -2.953775
C -4.105896 -0.073962 -0.756847
O -1.865573 2.401115 1.477878
O -2.685074 0.331025 1.860771
O -4.630496 1.011727 -0.864367
O -4.623671 -1.094939 -0.028620
C -3.538943 0.823078 2.900502
C -5.878788 -0.894024 0.631662
H -1.526857 -2.236709 -1.654221
H -3.164257 -2.671855 -1.154215
H -1.404367 -3.025233 0.656031
H -2.619438 -1.868212 1.190445
H 0.138132 -1.308619 -0.030355
H -0.285708 -0.949011 1.643606
H 0.103307 2.281082 -0.383100
H 0.891990 0.741485 -0.791675
H 0.863188 1.298829 0.907209
H -3.797226 -1.278798 -3.233766
H -2.080641 -0.833747 -3.449279
H -3.313840 0.442726 -3.337456
H -4.218948 1.602517 2.526761
H -2.956093 1.234931 3.737182
H -4.129195 -0.031904 3.258505
H -5.851869 -0.015867 1.292082
H -6.068186 -1.794058 1.233361
H -6.696623 -0.763276 -0.092561

