%NProcShared=4
%Mem=10GB
%Chk=Macro_10_opt.chk
#P wB97XD/LANL2DZ opt freq=noraman

previous condition without solvent

0 2
O -4.723127 -0.744005 -1.288690
N -3.507675 -0.830781 -0.448564
C -3.119040 -2.289168 -0.391526
C -1.667767 -0.150156 -2.111572
C -2.500853 0.214158 -0.872241
C -3.221778 -2.906191 -1.798085
C -4.125057 -2.978720 0.548520
C -3.317618 1.483986 -1.173721
C -1.510589 0.502497 0.271030
H -1.243887 0.819224 -2.535687
H -2.310178 -0.658490 -2.904743
H -2.964593 -4.015474 -1.748106
H -2.490321 -2.375753 -2.493701
H -4.283463 -2.775657 -2.192436
H -3.895943 -4.094545 0.597563
H -5.181762 -2.823715 0.149966
H -4.041329 -2.527122 1.591861
H -3.901548 1.789601 -0.243708
H -4.045802 1.271046 -2.024601
H -2.613176 2.327520 -1.476333
H -0.795425 1.331616 -0.045863
H -0.916696 -0.443222 0.501735
H -2.085282 0.826737 1.200474
C -1.686921 -2.535289 0.106361
C -0.733419 -2.366983 -1.091416
C -0.439754 -0.983261 -1.693916
O -0.062005 -3.584525 -1.679531
H -1.605887 -3.628558 0.419697
H -1.431362 -1.863481 0.991072
H 0.208538 -1.141026 -2.618227
H 0.156955 -0.381943 -0.931085

