%NProcShared=4
%Mem=10GB
%Chk=Macro_15_opt.chk
#P wB97XD/LANL2DZ opt freq=noraman

previous condition without solvent

0 2
O -4.489560 -1.493618 -1.026064
N -3.070718 -1.688222 -0.656292
C -3.082905 -2.691410 0.478534
C -2.440618 -0.335574 -0.362295
C -3.432681 -4.083653 -0.078618
C -4.092672 -2.320872 1.581704
C -2.910397 0.134016 1.024841
C -3.035479 0.617021 -1.416155
H -3.393403 -4.851160 0.763212
H -2.680235 -4.366614 -0.887016
H -4.481349 -4.060236 -0.525290
H -4.047357 -3.102580 2.410292
H -5.142236 -2.297133 1.137551
H -3.843644 -1.299497 2.019430
H -2.473020 -0.555642 1.820455
H -4.048670 0.090517 1.071909
H -2.558539 1.202685 1.207994
H -4.173406 0.590054 -1.356451
H -2.701445 0.289127 -2.455642
H -2.669895 1.678422 -1.217606
C -1.663282 -2.659695 1.033223
C 0.105495 -0.777500 0.490691
C -0.904401 -0.100379 -0.468768
H -1.449916 -3.412936 1.861823
H -1.500457 -1.598758 1.414668
H -0.349725 -0.778701 1.535969
H -0.557162 -0.282482 -1.539009
H -0.800386 1.014548 -0.254367
C -0.816863 -2.891700 -0.221679
C 0.512652 -2.201767 0.061538
H -1.279056 -2.309972 -1.085437
H -0.735121 -3.993051 -0.503788
O 1.379662 0.032708 0.517411
H 1.124741 -2.178231 -0.899896
H 1.102424 -2.713130 0.892453
H 1.150666 1.069733 0.840512

