%NProcShared=4
%Mem=10GB
%Chk=Macro_14_opt.chk
#P wB97XD/LANL2DZ opt freq=noraman

previous condition without solvent

0 2
O -4.501020 -1.514752 -1.045822
N -3.071244 -1.695633 -0.712943
C -3.050450 -2.649721 0.462825
C -2.435233 -0.332933 -0.488348
C -3.404971 -4.064946 -0.027743
C -4.037359 -2.239985 1.572709
C -2.864737 0.192000 0.891940
C -3.063332 0.577602 -1.558845
H -3.341522 -4.796110 0.844466
H -2.669412 -4.377317 -0.840851
H -4.463890 -4.065410 -0.450079
H -3.970781 -2.989124 2.429404
H -5.096265 -2.238589 1.150586
H -3.784525 -1.201145 1.964874
H -2.404886 -0.464666 1.702553
H -4.001131 0.151591 0.973413
H -2.507727 1.266915 1.020417
H -4.198903 0.551807 -1.463416
H -2.759527 0.210623 -2.594497
H -2.693925 1.645772 -1.410074
C -1.617515 -2.593107 0.980064
C 0.135093 -0.731574 0.303986
C -0.904590 -0.097355 -0.652314
H -1.381985 -3.310466 1.834032
H -1.445068 -1.517038 1.311803
H -0.288158 -0.685979 1.361548
H 1.097105 -0.121407 0.265429
H -0.589283 -0.323035 -1.724228
H -0.799122 1.025706 -0.487034
C -0.803726 -2.878945 -0.285335
C 0.530551 -2.173346 -0.072532
O 1.302146 -2.195121 -1.370154
H -1.291659 -2.337937 -1.161218
H -0.725844 -3.991625 -0.520218
H 1.146876 -2.645867 0.762007
H 2.248446 -1.628450 -1.246198

