%NProcShared=4
%Mem=10GB
%Chk=Macro_16_opt.chk
#P wB97XD/LANL2DZ opt freq=noraman

previous condition without solvent

0 2
O -4.227680 -1.302868 -1.144796
N -3.020276 -1.791059 -0.523066
C -3.327426 -2.418419 0.777337
C -1.954497 -0.774697 -0.637023
C -4.238805 -3.637929 0.464407
C -4.073862 -1.539366 1.826258
C -2.392026 0.611456 -0.090075
C -1.680063 -0.620815 -2.160680
H -5.205816 -3.267035 0.078891
H -4.470968 -4.151061 1.414580
H -3.390862 -0.785114 2.252751
H -4.299182 -2.214417 2.673229
H -2.611144 0.549407 0.986445
H -3.346438 0.890626 -0.572492
H -0.836295 0.075873 -2.300746
H -2.557766 -0.133837 -2.625546
C -5.373522 -0.814911 1.453563
C -3.714119 -4.681943 -0.532602
C -1.376533 -1.893861 -2.965503
C -1.409133 1.777147 -0.276226
C -2.037826 -2.896291 1.446771
C -1.043841 -1.760959 1.440181
C -0.688576 -1.271063 0.059904
O -0.573619 -1.287577 2.452154
H -6.147754 -1.505272 1.086159
H -5.209113 -0.049735 0.678814
H -5.776265 -0.303784 2.343534
H -4.477472 -5.459281 -0.701367
H -2.806547 -5.185472 -0.165461
H -3.477906 -4.228388 -1.508164
H -0.456046 -2.391096 -2.624057
H -1.241015 -1.640266 -4.029868
H -2.200421 -2.621329 -2.899625
H -1.205828 1.987067 -1.337369
H -0.448462 1.592537 0.229033
H -1.837060 2.694475 0.161794
H -1.572441 -3.714394 0.870776
H -2.221575 -3.248118 2.468654
H -0.280271 -2.145436 -0.475725
H 0.089501 -0.502577 0.108877

