%NProcShared=4
%Mem=10GB
%Chk=Macro_17_opt.chk
#P wB97XD/LANL2DZ opt freq=noraman

previous condition without solvent

0 2
O -5.653063 -1.880598 -2.342381
N -4.738940 -1.631036 -3.431250
C -4.794586 -2.733366 -4.414305
C -3.454748 -1.128534 -2.900069
C -6.241955 -2.735764 -4.983707
C -4.500895 -4.169609 -3.882948
C -2.831903 -2.081880 -1.843379
C -3.787293 0.217700 -2.191774
H -6.938046 -3.030276 -4.178003
H -6.310981 -3.530890 -5.746882
H -3.427504 -4.285844 -3.662807
H -4.683443 -4.845705 -4.738796
H -2.621607 -3.063968 -2.291020
H -3.589019 -2.270383 -1.060593
H -2.847457 0.672433 -1.836211
H -4.380622 -0.003686 -1.285166
C -5.271534 -4.723228 -2.677619
C -6.771468 -1.431438 -5.597518
C -4.549023 1.281378 -2.996985
C -1.540172 -1.613837 -1.157282
C -3.788281 -2.460405 -5.547103
C -2.339950 -2.105158 -5.038077
C -2.485694 -0.868630 -4.068470
H -5.068899 -4.144475 -1.762981
H -4.960065 -5.763325 -2.487822
H -6.359903 -4.724597 -2.841804
H -6.737349 -0.599664 -4.876734
H -7.820060 -1.560435 -5.911203
H -6.195686 -1.130486 -6.486299
H -5.517516 0.900508 -3.356313
H -3.976481 1.627872 -3.870800
H -4.750537 2.159578 -2.362329
H -1.680650 -0.674025 -0.601327
H -0.721597 -1.467682 -1.878636
H -1.207050 -2.374961 -0.431873
H -4.108067 -1.591590 -6.148794
H -3.764270 -3.319105 -6.238414
H -2.873924 -0.044176 -4.692268
H -1.510296 -0.530364 -3.686441
O -1.560360 -1.795638 -6.189095
H -1.890900 -2.965898 -4.509344
H -0.679255 -1.608749 -5.884424

