%NProcShared=4
%Mem=10GB
%Chk=Macro_13_opt.chk
#P wB97XD/LANL2DZ opt freq=noraman

previous condition without solvent

0 2
O -4.647098 -1.315967 -0.996625
N -3.191033 -1.529963 -0.843882
C -3.020530 -2.585319 0.220286
C -2.490983 -0.215583 -0.620615
C -3.357369 -3.928020 -0.452611
C -4.030303 -2.319338 1.351983
C -2.541460 0.223337 0.854089
C -3.218434 0.827361 -1.488607
H -3.303202 -4.763957 0.320183
H -2.606681 -4.131049 -1.286153
H -4.409033 -3.880490 -0.889832
H -3.961014 -3.151219 2.128507
H -5.085624 -2.286708 0.921656
H -3.791119 -1.318704 1.843018
H -1.996384 -0.544667 1.495929
H -3.629037 0.292521 1.189685
H -2.039367 1.240458 0.967222
H -4.302327 0.914682 -1.146749
H -3.189670 0.498912 -2.579782
H -2.703090 1.838387 -1.381469
C -1.633169 -2.697052 0.878377
C -0.438371 -2.653071 -0.088243
C -0.068433 -1.182499 -0.370515
C -1.056700 -0.316366 -1.175207
O 0.747184 -3.227660 0.650010
H -1.633155 -3.691284 1.436058
H -1.481565 -1.856874 1.633287
H -0.627572 -3.269254 -1.028533
H 0.921393 -1.172791 -0.935389
H 0.089236 -0.681391 0.641508
H -1.123146 -0.715318 -2.240834
H -0.618433 0.735659 -1.207870
H 0.932476 -2.634883 1.569968

