%NProcShared=4
%Mem=10GB
%Chk=Macro_19_opt.chk
#P wB97XD/LANL2DZ opt freq=noraman

previous condition without solvent

0 2
O -5.217157 -2.721769 -1.998910
N -4.854135 -2.175244 -3.288268
C -4.277474 -3.266071 -4.105637
C -4.302817 -0.820337 -3.072709
C -5.439023 -4.297171 -4.247600
C -3.095888 -3.979892 -3.385578
C -3.067870 -0.825024 -2.129895
C -5.450201 -0.031571 -2.367960
H -5.647777 -4.743155 -3.257742
H -5.094490 -5.132831 -4.881221
H -3.423619 -4.258053 -2.367651
H -2.256202 -3.281149 -3.244226
H -2.239784 -1.379793 -2.599291
H -3.325159 -1.390932 -1.216168
H -5.120195 1.009631 -2.212301
H -5.601498 -0.447097 -1.354615
C -2.525336 -5.235410 -4.062534
C -6.768575 -3.794918 -4.831179
C -6.816831 0.015938 -3.067871
C -2.512300 0.543210 -1.708263
C -3.900810 -2.831542 -5.525574
C -3.992014 -0.077191 -4.390655
H -2.145810 -5.021417 -5.073840
H -3.268976 -6.043494 -4.138070
H -1.679506 -5.624134 -3.471640
H -7.501645 -4.617871 -4.857609
H -6.650530 -3.424482 -5.861189
H -7.201317 -2.983666 -4.226942
H -7.234733 -0.990046 -3.220147
H -6.758654 0.510751 -4.049495
H -7.533186 0.584671 -2.452644
H -3.240679 1.124036 -1.122017
H -2.208393 1.148761 -2.576033
H -1.620458 0.404174 -1.074759
H -4.734218 -2.282035 -5.991872
H -3.683358 -3.719691 -6.133201
H -3.854904 0.991766 -4.152393
H -4.882610 -0.130208 -5.041290
C -2.665992 -1.970169 -5.576661
C -2.765922 -0.507508 -5.206508
O -1.596096 -2.421116 -5.938966
H -2.740119 0.049170 -6.159554
H -1.823225 -0.264078 -4.693198

