%NProcShared=4
%Mem=10GB
%Chk=Macro_9_opt.chk
#P wB97XD/LANL2DZ opt freq=noraman

previous condition without solvent

0 2
O -4.692658 -0.575314 -1.480465
N -3.619161 -0.539558 -0.462728
C -3.163943 -1.968319 -0.261624
C -1.713853 -2.028274 0.245251
C -0.869978 -1.416510 -0.887452
C -1.490853 -0.333045 -1.787142
C -2.505515 0.391248 -0.888008
C -3.189871 -2.692779 -1.620403
C -4.129004 -2.675930 0.707247
C -3.120108 1.610650 -1.598821
C -1.737923 0.865679 0.359991
O 0.552444 -1.870712 -1.110400
H -1.404120 -3.113060 0.408658
H -1.600897 -1.434942 1.212080
H -2.011111 -0.792409 -2.691568
H -0.680482 0.394921 -2.123101
H -2.853660 -3.773093 -1.481255
H -2.486161 -2.166988 -2.346727
H -4.250064 -2.675138 -2.039059
H -3.807502 -3.761655 0.839548
H -5.185889 -2.641119 0.281416
H -4.108322 -2.147194 1.717067
H -3.686262 1.262646 -2.525076
H -2.291062 2.330331 -1.905889
H -3.840370 2.138493 -0.890221
H -0.903052 1.574756 0.044267
H -1.288337 -0.032805 0.898148
H -2.453742 1.408829 1.061497

