%NProcShared=4
%Mem=10GB
%Chk=Macro_11_opt.chk
#P wB97XD/LANL2DZ opt freq=noraman

previous condition without solvent

0 2
O -1.493857 1.343740 -1.448922
N -0.057358 1.500332 -1.111588
C 0.544229 0.227248 -0.537387
C 2.073241 0.055628 -0.782605
C 1.613263 3.089892 -0.167574
C 0.127257 2.863115 -0.468621
C -0.356215 3.912304 -1.485901
C 0.040852 -0.070572 0.894788
C -0.033714 -0.907703 -1.403670
C -0.677332 2.996536 0.836884
H 2.155971 0.000858 -1.918209
H 2.342636 -0.977147 -0.382311
H 1.874051 4.173462 0.071595
H 2.195978 2.734491 -1.080512
H -1.459290 3.736795 -1.713951
H 0.250685 3.817692 -2.446105
H -0.218434 4.956559 -1.049639
H 0.388360 -1.111133 1.203964
H -1.095254 -0.037492 0.892839
H 0.407834 0.687549 1.661728
H 0.357677 -1.909503 -1.026298
H 0.290166 -0.757649 -2.486436
H -1.170272 -0.899788 -1.349053
H -0.324807 2.202548 1.575582
H -1.786177 2.847339 0.618092
H -0.512620 4.033348 1.281113
C 1.888013 2.222381 1.066304
H 1.261725 1.293847 0.965910
H 1.632615 2.761722 2.037321
C 3.313479 1.698816 0.967171
C 3.252365 0.990052 -0.396803
O 4.291896 1.321271 -1.439818
H 3.543983 0.961463 1.805393
H 4.061943 2.558510 0.959367

