%NProcShared=4
%Mem=10GB
%Chk=Mix_14_St2_opt.chk
#P wB97XD/LANL2DZ opt freq=noraman

previous condition without solvent

0 1
C 1.781682 2.092125 -5.814692
C 0.539858 1.341104 -5.305235
C 0.504318 -0.039721 -5.935907
C 1.542731 -0.954161 -5.758097
C 1.510514 -2.216023 -6.345104
C 0.422926 -2.588543 -7.137267
C -0.624574 -1.685455 -7.330068
C -0.574105 -0.427831 -6.732582
C 0.517727 1.265351 -3.757302
C -0.965531 1.074724 -3.115500
C -1.603855 -0.257742 -3.476523
C -2.973204 -0.315589 -3.756026
C -3.610168 -1.517910 -4.055300
C -2.877688 -2.705809 -4.055902
C -1.516801 -2.672939 -3.752691
C -0.900532 -1.461831 -3.456108
O -1.046504 1.237371 -1.686213
N -0.047601 2.050312 -1.063991
C 0.793473 1.206977 -0.144955
C 2.288770 1.336123 -0.526364
C 0.469017 4.542213 -0.617373
C -0.579256 3.399864 -0.755387
C -1.429873 3.881268 -1.958537
C 0.594248 1.380592 1.371484
C 0.483693 -0.298569 -0.348638
C -1.550705 3.439186 0.439740
H 1.805916 2.132389 -6.915944
H 2.713262 1.614553 -5.471813
H 1.789732 3.131095 -5.446152
H -0.342394 1.918891 -5.627807
H 2.402408 -0.670081 -5.135161
H 2.341660 -2.917692 -6.185911
H 0.392265 -3.582629 -7.603428
H -1.487858 -1.970885 -7.950739
H -1.406854 0.274280 -6.879621
H 0.902913 2.224762 -3.370339
H 1.214178 0.502096 -3.379119
H -1.580905 1.867830 -3.565375
H -3.557574 0.615708 -3.747347
H -4.686326 -1.540874 -4.288352
H -3.364094 -3.660564 -4.287129
H -0.928232 -3.601253 -3.752570
H 0.175181 -1.458826 -3.239931
H 2.452746 0.746182 -1.448688
H 2.876888 0.821006 0.253463
H -0.135811 5.460404 -0.493618
H 0.986952 4.667184 -1.586249
H -2.325749 3.259307 -2.114089
H -0.844984 3.891250 -2.891776
H -1.787922 4.907781 -1.777925
H 1.230595 0.646693 1.893111
H -0.450822 1.175978 1.655137
H 0.867445 2.363990 1.764881
H 1.128712 -0.901048 0.310837
H 0.678185 -0.622102 -1.379529
H -0.564469 -0.543169 -0.109897
H -1.069631 3.292472 1.415962
H -2.332857 2.670677 0.331602
H -2.042022 4.424884 0.474989
C 1.531650 4.592281 0.498401
H 1.100960 4.294927 1.465084
H 1.782678 5.660272 0.634433
C 2.933653 3.877660 0.199385
C 2.936073 2.689548 -0.830433
O 3.805269 4.823883 -0.420332
H 3.388027 3.546377 1.151725
H 4.001059 2.483056 -1.050482
H 2.522872 3.074403 -1.779926
H 4.045062 5.468603 0.237149

