%NProcShared=4
%Mem=10GB
%Chk=Mix_16_St2_opt.chk
#P wB97XD/LANL2DZ opt freq=noraman

previous condition without solvent

0 1
C -5.154790 -1.701111 -2.566591
C -3.869246 -0.933371 -2.906912
C -3.868073 -0.551317 -4.374250
C -4.816745 0.312583 -4.919332
C -4.777628 0.679258 -6.261988
C -3.774151 0.177469 -7.093594
C -2.823253 -0.698222 -6.566143
C -2.878550 -1.052340 -5.221228
C -3.687961 0.321788 -2.022683
C -2.365841 1.195764 -2.348498
C -2.793466 2.488322 -3.013189
C -2.605630 2.687038 -4.381415
C -3.012253 3.861233 -5.008696
C -3.629521 4.870328 -4.266605
C -3.834343 4.683478 -2.897788
C -3.423296 3.500991 -2.289155
O -1.661602 1.506846 -1.141077
N -0.267591 1.200494 -1.122188
C -0.055790 0.094921 -0.144710
C 1.429704 -0.087988 0.165655
C 2.019731 1.249049 0.509715
C 1.954601 2.214306 -0.638175
C 0.488253 2.478116 -0.981291
C 0.457282 3.185577 -2.367016
C -0.851625 0.296910 1.180465
C -0.563301 -1.208640 -0.823717
C -0.141769 3.444920 0.066610
H -5.266510 -2.596840 -3.198849
H -6.048254 -1.073034 -2.710301
H -5.149381 -2.035145 -1.516521
H -3.018863 -1.606757 -2.711911
H -5.599209 0.726284 -4.267678
H -5.530874 1.373254 -6.661841
H -3.730722 0.470808 -8.151093
H -2.029796 -1.104009 -7.210135
H -2.122341 -1.737331 -4.811598
H -3.601464 0.003864 -0.971069
H -4.606772 0.933677 -2.062471
H -1.699121 0.625487 -3.007567
H -2.122353 1.896897 -4.974107
H -2.848934 3.989878 -6.088215
H -3.952373 5.800501 -4.754629
H -4.319954 5.468049 -2.300158
H -3.582212 3.358466 -1.210144
H 1.968836 -0.434092 -0.732905
H 1.594628 -0.813175 0.968541
H 2.460024 1.716726 -1.484066
H 2.494776 3.138467 -0.409411
H 1.109020 4.074927 -2.312905
H -0.554963 3.581806 -2.550216
H -1.908132 0.512718 0.942065
H -0.478558 1.183680 1.715018
H -1.658826 -1.149146 -0.932263
H -0.379756 -2.053190 -0.137478
H -0.104331 2.998978 1.071831
H -1.213854 3.576381 -0.163127
O 2.489055 1.520731 1.593029
C 0.884716 2.378495 -3.602171
C 0.472328 4.849047 0.183119
C 0.035156 -1.594202 -2.185952
C -0.842547 -0.860038 2.192226
H 0.760289 2.992588 -4.509023
H 0.277506 1.470130 -3.731502
H 1.940632 2.073034 -3.551618
H 0.395752 5.416721 -0.756807
H 1.530832 4.818680 0.483130
H -0.067560 5.423595 0.954195
H -0.054954 -0.785422 -2.926040
H -0.490451 -2.475404 -2.588043
H 1.101012 -1.856370 -2.105278
H -1.309239 -1.771533 1.788972
H -1.419328 -0.568664 3.085812
H 0.173526 -1.112848 2.530988

