%NProcShared=4
%Mem=10GB
%Chk=Mix_5_St2_opt.chk
#P wB97XD/LANL2DZ opt freq=noraman

previous condition without solvent

0 1
C -6.331274 1.717389 -0.560506
C -5.044331 1.037806 -0.068751
C -5.342950 -0.418158 0.238933
C -5.663097 -1.340162 -0.757136
C -5.947960 -2.669319 -0.454095
C -5.923462 -3.104384 0.872647
C -5.608390 -2.193255 1.882886
C -5.324727 -0.868812 1.559781
C -3.900873 1.194626 -1.096264
C -2.443025 0.675892 -0.630629
C -2.323827 -0.813657 -0.876040
C -2.318269 -1.337767 -2.169392
C -2.214499 -2.706869 -2.399603
C -2.119737 -3.589489 -1.321516
C -2.128417 -3.081712 -0.020610
C -2.229298 -1.709059 0.189852
O -1.429166 1.356121 -1.381956
N -0.318898 1.837301 -0.632645
C -0.458282 3.303967 -0.489945
C 0.835326 3.917594 0.095049
C 2.113856 3.494828 -0.636149
C 2.163142 1.962685 -0.642681
C 0.909130 1.303847 -1.261110
C 0.999387 -0.328181 -0.910561
C -0.844485 4.070471 -1.771556
C -1.661130 3.608328 0.638294
C 0.988610 1.422200 -2.797229
O -1.690188 5.004765 0.864298
C -2.676897 5.367566 1.807767
H -7.144769 1.627094 0.177433
H -6.682286 1.271067 -1.504782
H -6.166962 2.791803 -0.742116
H -4.728578 1.548026 0.856945
H -5.682139 -1.009995 -1.805054
H -6.190065 -3.376190 -1.260669
H -6.151194 -4.151546 1.117750
H -5.586691 -2.520457 2.932237
H -5.081032 -0.158283 2.362382
H -3.784149 2.269140 -1.319685
H -4.179981 0.737678 -2.061431
H -2.303407 0.905015 0.435932
H -2.381539 -0.644896 -3.021239
H -2.207786 -3.091293 -3.429607
H -2.043155 -4.672225 -1.494722
H -2.064575 -3.764852 0.838313
H -2.243162 -1.319674 1.217790
H 0.935132 3.590430 1.146680
H 0.727215 5.015048 0.123292
H 3.002953 3.909016 -0.129082
H 2.123523 3.890163 -1.665783
H 2.257515 1.627778 0.407015
H 3.057854 1.587373 -1.167810
H -0.996148 5.131586 -1.517535
H -1.783076 3.689491 -2.203854
H -0.075555 4.032318 -2.554026
H -3.693321 5.096568 1.472052
H -2.627529 6.460689 1.917922
H -2.496461 4.909095 2.795817
O 2.261847 -0.796711 -1.346142
C 2.396818 -2.185960 -1.128081
H 1.036092 2.457673 -3.157678
H 0.129251 0.935366 -3.284611
H 1.903904 0.915403 -3.142659
H 3.394945 -2.472522 -1.488633
H 1.643226 -2.768706 -1.686518
H 2.323325 -2.447797 -0.058007
H 0.187123 -0.861542 -1.430454
H 0.866911 -0.475731 0.176933
H -1.429698 3.053942 1.566572
H -2.634371 3.251422 0.262365

