%NProcShared=4
%Mem=10GB
%Chk=Mix_3_St2_opt.chk
#P wB97XD/LANL2DZ opt freq=noraman

previous condition without solvent

0 1
C -5.143365 0.062338 0.634959
C -4.705921 -1.104376 -0.265569
C -5.912146 -1.708064 -0.960296
C -6.789858 -0.935914 -1.722171
C -7.864755 -1.508025 -2.396258
C -8.077996 -2.885512 -2.323068
C -7.211937 -3.673248 -1.561715
C -6.143764 -3.082040 -0.892642
C -3.706624 -0.719705 -1.363450
C -2.333430 -0.073998 -0.859135
C -1.584912 -1.077956 -0.009074
C -1.070363 -2.251732 -0.559226
C -0.385232 -3.180582 0.218729
C -0.202038 -2.946841 1.583387
C -0.712004 -1.776725 2.150294
C -1.393639 -0.858462 1.355731
O -1.467716 0.323530 -1.931043
N -2.029122 1.147184 -2.939175
C -1.772456 0.467236 -4.243379
C -2.288606 1.371949 -5.398211
C -1.696737 2.787752 -5.374373
C -1.995158 3.399796 -4.002734
C -1.528934 2.552705 -2.788744
C -2.122313 3.179575 -1.489568
C -0.275318 0.134424 -4.550036
C -2.578979 -0.850169 -4.353189
C 0.007516 2.662725 -2.634322
O 0.799533 3.104717 -3.433693
O 0.372387 2.234365 -1.391860
O -2.162208 -1.985204 -4.331741
O -3.898854 -0.555260 -4.538348
C 1.760597 2.257304 -1.041992
C -4.821073 -1.640151 -4.698450
H -5.915151 -0.263884 1.351280
H -5.557282 0.897608 0.049093
H -4.300131 0.458272 1.222293
H -4.238927 -1.866447 0.380709
H -6.619640 0.147063 -1.801437
H -8.540502 -0.876439 -2.990776
H -8.917630 -3.343272 -2.862603
H -7.369994 -4.759490 -1.494787
H -5.458651 -3.709072 -0.303736
H -4.185277 -0.004155 -2.052363
H -3.465859 -1.613796 -1.962668
H -2.565878 0.814918 -0.260717
H -1.209795 -2.440898 -1.634104
H 0.011163 -4.095959 -0.243920
H 0.338331 -3.675972 2.203440
H -0.573028 -1.579938 3.223272
H -1.789485 0.060739 1.810559
H -3.383946 1.498768 -5.322727
H -2.089795 0.871839 -6.361236
H -2.157122 3.403997 -6.166681
H -0.615017 2.777362 -5.584447
H -3.094730 3.488541 -3.936586
H -1.596824 4.424072 -3.908841
H -1.740278 4.213560 -1.414688
H -1.736089 2.651913 -0.601306
H 0.269437 1.079029 -4.702373
H -0.271423 -0.352155 -5.543055
H 1.839673 1.828875 -0.033092
H 2.154793 3.283287 -1.032713
H 2.361482 1.653958 -1.738158
H -5.820993 -1.195291 -4.796071
H -4.809992 -2.312144 -3.828238
H -4.596145 -2.228780 -5.599354
C -3.652285 3.233435 -1.364780
C 0.587387 -0.720935 -3.612537
H -3.936706 3.590391 -0.361490
H -4.108874 2.242596 -1.508557
H -4.103052 3.920075 -2.097791
H 0.169568 -1.724315 -3.441920
H 0.736657 -0.248083 -2.630137
H 1.583765 -0.851221 -4.066707

