%NProcShared=4
%Mem=10GB
%Chk=Mix_13_St2_opt.chk
#P wB97XD/LANL2DZ opt freq=noraman

previous condition without solvent

0 1
C -5.805019 -0.600229 -1.859006
C -4.512142 -0.107112 -2.524766
C -4.864422 0.715018 -3.750420
C -5.466314 1.968845 -3.655970
C -5.782081 2.709897 -4.791277
C -5.513640 2.195810 -6.061706
C -4.913176 0.939900 -6.174137
C -4.594363 0.217777 -5.026565
C -3.630147 0.694553 -1.539589
C -2.221335 1.215465 -2.149227
C -2.383350 2.670484 -2.538794
C -2.602100 3.661292 -1.580402
C -2.772229 4.995757 -1.939188
C -2.732651 5.365980 -3.285386
C -2.518994 4.386079 -4.257425
C -2.348935 3.057097 -3.879243
O -1.173938 1.087654 -1.173856
N 0.076527 0.574049 -1.651419
C 0.182068 -0.845719 -1.248475
C 1.402415 -1.552366 -1.860642
C 2.576196 1.187877 -1.662415
C 1.112917 1.594665 -1.357256
C 0.866897 2.773793 -2.323356
C 0.111200 -1.100271 0.266136
C -1.003525 -1.615283 -1.876609
C 1.039753 2.173145 0.070723
H -6.420461 -1.187907 -2.559398
H -6.415978 0.243662 -1.500286
H -5.583820 -1.243312 -0.992036
H -3.935528 -0.993400 -2.838890
H -5.682454 2.386009 -2.662309
H -6.245603 3.700918 -4.684163
H -5.783507 2.771486 -6.960037
H -4.695083 0.520053 -7.166683
H -4.122470 -0.770549 -5.124161
H -3.380104 0.045681 -0.684274
H -4.215397 1.520373 -1.098722
H -1.956260 0.610522 -3.027498
H -2.622461 3.373331 -0.519134
H -2.935879 5.756241 -1.162274
H -2.867402 6.416971 -3.576687
H -2.491300 4.659853 -5.321817
H -2.190652 2.290750 -4.651995
H 1.457750 -1.262576 -2.925570
H 1.214557 -2.641665 -1.858765
H 3.176727 2.106630 -1.529905
H 2.668880 0.916711 -2.730397
H -0.042586 3.335325 -2.076159
H 0.781454 2.422905 -3.364014
H 1.696409 3.496544 -2.271183
H 0.096734 -2.186346 0.448453
H -0.805504 -0.667044 0.697418
H 0.966973 -0.684047 0.815649
H -0.899122 -2.695367 -1.685158
H -1.041810 -1.465941 -2.967498
H -1.972131 -1.321927 -1.453446
H 1.207783 1.421093 0.853770
H 0.058691 2.635098 0.266361
H 1.806071 2.956021 0.183290
C 3.233672 0.090851 -0.816375
C 2.857721 -1.370383 -1.267383
O 3.705168 -1.795256 -2.333073
H 3.002909 0.247205 0.249565
H 4.329916 0.187116 -0.902513
H 2.988054 -2.055343 -0.407639
H 4.596012 -1.783030 -2.004830

