%NProcShared=4
%Mem=10GB
%Chk=Mix_20_St2_opt.chk
#P wB97XD/LANL2DZ opt freq=noraman

previous condition without solvent

0 1
C -4.694280 2.000829 1.941435
C -3.783855 0.942412 1.302624
C -4.319539 -0.439519 1.625210
C -5.492672 -0.932681 1.056671
C -5.962829 -2.208202 1.355260
C -5.271142 -3.018001 2.258627
C -4.096614 -2.536859 2.840993
C -3.633280 -1.263442 2.518894
C -3.646601 1.149772 -0.224472
C -2.705458 0.072908 -0.986743
C -3.614327 -0.803813 -1.824159
C -3.889475 -2.118016 -1.443872
C -4.741461 -2.928021 -2.189326
C -5.349743 -2.425389 -3.341544
C -5.095199 -1.108231 -3.729706
C -4.241734 -0.313340 -2.969830
O -1.764005 0.740497 -1.842343
N -0.392754 0.317837 -1.773553
C 0.388864 1.407087 -1.132309
C 1.882556 1.074540 -0.950175
C 1.467741 -0.601520 -3.320439
C -0.039449 -0.317267 -3.082779
C -0.695288 -1.731621 -3.079266
C 0.311927 2.798955 -1.825741
C -0.132309 1.562146 0.328752
C -0.634700 0.488615 -4.279934
H -4.762781 1.865656 3.032820
H -5.715309 1.950640 1.531002
H -4.310118 3.016989 1.756877
H -2.781681 1.050656 1.747388
H -6.048445 -0.306018 0.344933
H -6.881665 -2.574738 0.876951
H -5.655962 -4.016949 2.513714
H -3.539305 -3.160303 3.555344
H -2.707163 -0.892355 2.981118
H -3.199747 2.139580 -0.406413
H -4.653403 1.213160 -0.674459
H -2.153323 -0.528465 -0.255070
H -3.417576 -2.519064 -0.534594
H -4.935637 -3.960961 -1.867211
H -6.022753 -3.059181 -3.935713
H -5.568418 -0.697309 -4.632877
H -4.039605 0.722828 -3.277747
H 1.972387 0.039397 -0.576324
H 2.280784 1.718595 -0.144289
H 1.523547 -1.227063 -4.228766
H 1.861989 -1.233852 -2.505483
H -0.378683 -2.261987 -3.994530
H -1.785635 -1.637358 -3.185201
H 0.779880 2.741469 -2.822280
H 0.964261 3.466534 -1.233153
H -1.193157 1.848986 0.321872
H 0.389517 2.424110 0.782771
H -0.288945 1.533780 -4.232957
H -1.731413 0.540595 -4.160905
C 2.421332 0.584403 -3.510637
C 2.910696 1.199091 -2.145325
O 4.053675 0.491085 -1.669055
H 1.958990 1.348819 -4.155025
H 3.316717 0.236775 -4.053872
C -0.403703 -2.650258 -1.882992
C -0.356034 -0.038866 -5.695011
C -1.033161 3.516841 -1.999614
C 0.046833 0.363208 1.276394
H 0.663379 -2.911733 -1.816054
H -0.971070 -3.589524 -1.984364
H -0.695590 -2.185956 -0.928924
H -0.725362 -1.067090 -5.829973
H 0.717156 -0.025242 -5.939315
H -0.869771 0.595252 -6.436146
H -1.717443 2.965579 -2.662464
H -0.860657 4.505368 -2.455616
H -1.544196 3.678638 -1.038668
H -0.365758 -0.566420 0.857740
H -0.460722 0.557490 2.234751
H 1.109760 0.181163 1.500100
H 3.181376 2.261597 -2.293987
H 4.734474 0.586565 -2.324814

