%NProcShared=4
%Mem=10GB
%Chk=27.chk
#P wB97XD/LANL2DZ opt freq=noraman

previous condition without solvent

0 2 
O         -7.58612        0.34253       -0.20677
N         -6.72901        1.30352       -0.15348
C         -6.18069        1.66026        1.20935
C         -5.26558        2.88288        1.15680
P         -7.76390        3.08095       -1.98637
C         -6.37158        1.99489       -1.39536
C         -7.37284        1.94667        2.13414
C         -5.40677        0.43477        1.71676
C         -5.70304        1.04748       -2.45409
H         -5.79758        3.76210        0.76425
H         -4.36214        2.69630        0.55452
H         -8.05399        1.08629        2.13364
H         -7.91752        2.83438        1.78819
H         -7.00353        2.11780        3.15560
H         -6.05486       -0.45117        1.66816
H         -5.10175        0.59998        2.76040
H         -4.50480        0.25942        1.11066
C         -5.05013        1.88755       -3.56552
C         -6.66940        0.03300       -3.08107
C         -4.59654        0.27868       -1.71314
H         -4.94114        3.10912        2.18310
O         -7.38098        4.08112       -3.02352
O         -9.01938        2.14296       -2.40117
O         -8.22968        3.69168       -0.55955
C         -9.30875        4.67684       -0.59995
C         -9.57787        5.12641        0.82059
C         -9.47593        2.17054       -3.79046
C        -10.36570        0.96406       -4.00012
H         -5.60417        2.74037       -1.14574
H         -4.47136        1.21740       -4.22083
H         -4.36337        2.64028       -3.14755
H         -5.79323        2.42271       -4.17141
H         -7.13438       -0.59645       -2.31238
H         -6.10523       -0.60349       -3.78120
H         -7.47108        0.53156       -3.64039
H         -4.05826       -0.35982       -2.42926
H         -5.01785       -0.36089       -0.92553
H         -3.86957        0.97216       -1.25816
H        -10.19740        4.19876       -1.04270
H         -8.99473        5.51252       -1.24287
H        -10.38910        5.87123        0.82590
H         -8.68100        5.58498        1.26174
H         -9.88270        4.27441        1.44396
H         -8.60499        2.15457       -4.46142
H        -10.01340        3.11543       -3.96089
H        -11.22260        0.98720       -3.31240
H         -9.80493        0.03457       -3.82416
H        -10.74230        0.96024       -5.03517

