%NProcShared=4
%Mem=10GB
%Chk=30a.chk
#P wB97XD/LANL2DZ opt freq=noraman

previous condition without solvent

0 2 
O         -4.91782       -0.75322        2.71174
N         -3.96096       -0.01126        2.31873
C         -3.61503        1.28092        2.99592
C         -2.33115        1.63185        2.28362
C         -1.94295        0.64246        1.38021
C         -2.93360       -0.48995        1.32064
C         -4.69163        2.33258        2.74245
C         -3.37195        0.99323        4.48467
C         -2.33002       -1.80882        1.82972
C         -3.62457       -0.64532       -0.03163
H         -1.67214       -2.24393        1.06294
H         -3.13696       -2.51623        2.06665
H         -1.74729       -1.62038        2.74183
C         -5.10862        3.22133        3.73776
C         -6.04580        4.22012        3.45189
C         -6.57346        4.34123        2.16552
C         -6.16636        3.45057        1.16729
C         -5.23249        2.45633        1.45363
C         -3.57176        0.37335       -0.99531
C         -4.26577        0.24817       -2.20072
C         -5.02301       -0.89696       -2.46095
C         -5.08925       -1.91185       -1.50344
C         -4.39683       -1.78521       -0.29775
H         -2.99595        1.89360        4.99154
H         -2.61713        0.20099        4.58227
H         -4.31105        0.66369        4.95226
H         -4.71372        3.13829        4.75059
H         -6.36196        4.90580        4.23986
H         -7.30239        5.12258        1.94134
H         -6.58056        3.52727        0.16038
H         -4.92856        1.75106        0.67816
H         -2.98215        1.26928       -0.80092
H         -4.20930        1.04630       -2.94243
H         -5.56339       -0.99739       -3.40335
H         -5.68537       -2.80564       -1.69137
H         -4.47089       -2.57314        0.45009
C         -1.56167        2.77852        2.46308
C         -0.37665        2.91343        1.73571
C          0.02388        1.91426        0.83907
C         -0.76054        0.77257        0.65331
H         -1.89402        3.55799        3.15123
H          0.23864        3.80514        1.86292
H          0.94925        2.03428        0.27437
H         -0.46822        0.00376       -0.06369

