%NProcShared=4
%Mem=10GB
%Chk=33.chk
#P wB97XD/LANL2DZ opt freq=noraman

previous condition without solvent

0 2 
O         -8.06872       -0.28937       -0.77065
N         -8.64491        0.33012       -1.75643
C         -9.20052       -0.52938       -2.84999
C         -9.82023        0.31904       -3.95911
C         -9.17122        1.69437       -1.48292
C         -8.05301       -1.37841       -3.40135
C        -10.30930       -1.43136       -2.23995
C         -8.16954        2.49668       -0.63193
H         -9.08242        1.01726       -4.38234
H        -10.69430        0.88228       -3.59964
H         -7.59392       -1.96495       -2.59658
H         -7.29124       -0.73196       -3.86458
H         -8.45065       -2.06675       -4.16107
O         -9.84293       -2.31579       -1.23458
H        -10.71460       -2.04573       -3.06367
H        -11.11860       -0.77600       -1.86390
C         -8.73775        3.88885       -0.34214
C         -6.81808        2.59793       -1.34453
H        -10.15190       -0.35558       -4.76203
H         -9.25895        2.19937       -2.45745
H         -8.89725        4.44500       -1.28196
H         -8.03097        4.46424        0.27476
H         -9.70062        3.83051        0.18751
H         -6.94076        3.09765       -2.32126
H         -6.37806        1.60373       -1.50780
H         -6.11682        3.19836       -0.74483
C        -10.55100        1.59451       -0.86578
C        -11.64420        2.21446       -1.48283
C        -12.92430        2.10826       -0.93181
C        -13.11720        1.38255        0.24510
C        -12.02770        0.76499        0.86947
C        -10.74830        0.87848        0.32198
H         -8.03670        1.95086        0.31490
H        -11.48480        2.78389       -2.40134
H        -13.76910        2.59516       -1.42028
H        -14.11690        1.29234        0.67331
H        -12.17710        0.18935        1.78339
H         -9.89717        0.38005        0.78685
H         -9.16463       -1.80229       -0.73654

