%NProcShared=4
%Mem=10GB
%Chk=37.chk
#P wB97XD/LANL2DZ opt freq=noraman

previous condition without solvent

0 2 
O         -8.14505       -1.72612       -0.83703
N         -8.03084       -1.39738       -2.07491
C         -9.27955       -0.91800       -2.76538
C        -10.33390       -2.01577       -2.58172
C         -6.67979       -1.00136       -2.55945
C         -9.74027        0.37964       -2.08273
C         -9.02479       -0.68314       -4.25598
C         -5.61328       -1.97487       -2.02368
H        -10.47380       -2.22408       -1.51325
H        -10.01870       -2.94264       -3.08676
H         -9.01404        1.18975       -2.24528
H         -9.84390        0.20265       -1.00289
H        -10.71400        0.68633       -2.49530
H         -8.61442       -1.58391       -4.73887
H         -8.34485        0.16549       -4.42280
H         -9.98519       -0.44465       -4.73605
C         -5.93693       -3.40301       -2.46694
H        -11.28680       -1.67911       -3.01741
H         -6.69159       -1.09144       -3.65581
H         -6.90976       -3.72639       -2.07092
H         -5.16287       -4.09938       -2.11078
H         -5.96434       -3.46360       -3.56908
C         -6.41932        0.44303       -2.19707
C         -6.19337        1.39662       -3.19932
C         -5.98848        2.73690       -2.87750
C         -6.00135        3.13191       -1.53437
C         -6.22024        2.18794       -0.52341
C         -6.42585        0.85017       -0.85438
C         -4.22683       -1.54371       -2.51080
H         -6.17743        1.07764       -4.24384
H         -5.80735        3.47752       -3.65764
C         -5.83303        4.58353       -1.19878
H         -6.22515        2.50659        0.51870
H         -6.62111        0.10826       -0.07825
H         -3.46245       -2.24541       -2.14559
H         -3.96932       -0.53180       -2.16516
H         -4.18723       -1.54819       -3.61428
F         -4.91730        5.20004       -2.01283
F         -5.42453        4.78455        0.09069
F         -7.01121        5.27854       -1.35070
H         -5.65238       -1.92352       -0.92413

