%NProcShared=4
%Mem=10GB
%Chk=39.chk
#P wB97XD/LANL2DZ opt freq=noraman

previous condition without solvent

0 2 
O         -4.81799        0.50931        1.76163
N         -4.33077        1.58199        2.26006
C         -2.87538        1.80906        2.45802
O         -2.83549        3.07212        3.14458
C         -4.11069        3.73085        3.00387
C         -5.14814        2.60930        2.95458
C         -6.37437        2.93994        2.11429
C         -5.53084        2.09892        4.34960
H         -4.23609        4.39045        3.87422
H         -4.14328        4.32719        2.07391
H         -7.00613        3.67250        2.63890
H         -6.95113        2.02024        1.94314
H         -6.07200        3.35396        1.14000
H         -6.17327        2.83562        4.85801
H         -4.63046        1.93303        4.95795
H         -6.07945        1.15067        4.25173
C         -2.25406        0.77037        3.40599
C         -2.05498       -0.62899        2.82120
C         -1.52958       -1.60514        3.87622
C         -1.26732       -3.00728        3.32248
C         -0.74008       -3.96685        4.39082
C         -2.17700        1.85429        1.09663
C         -2.64082        2.99234        0.18958
C         -1.93169        2.98489       -1.16387
C         -2.39080        4.11594       -2.08700
C         -1.66893        4.10093       -3.43419
H         -2.89236        0.71786        4.30300
H         -1.28404        1.18689        3.72880
H         -1.34040       -0.58563        1.98153
H         -3.00971       -0.99043        2.40739
H         -2.25547       -1.67211        4.70713
H         -0.59707       -1.20541        4.31727
H         -0.54569       -2.93699        2.49002
H         -2.20229       -3.40300        2.88834
H         -1.45677       -4.05758        5.22323
H          0.21161       -3.59981        4.80993
H         -0.56513       -4.97531        3.98335
H         -2.36942        0.88580        0.60679
H         -1.09059        1.92483        1.27352
H         -2.45953        3.95617        0.69454
H         -3.73098        2.91089        0.03231
H         -2.10128        2.01295       -1.66156
H         -0.84019        3.06323       -1.00763
H         -2.22136        5.08263       -1.58104
H         -3.48118        4.03568       -2.24127
H         -1.85186        3.15239       -3.96415
H         -0.58018        4.19623       -3.29507
H         -2.00156        4.92469       -4.08475

