%NProcShared=4
%Mem=10GB
%Chk=41.chk
#P wB97XD/LANL2DZ opt freq=noraman

previous condition without solvent

0 2 
O         -7.88948        0.40670        0.17287
N         -8.25628        1.11196       -0.84227
C         -8.23170        0.44760       -2.17701
C         -9.25929        2.19012       -0.60708
C         -8.43738        1.45198       -3.31158
C         -6.92070       -0.31670       -2.33260
C         -8.99943        2.89310        0.73765
H         -8.29577        0.93370       -4.27095
H         -7.69311        2.26136       -3.24766
H         -9.44668        1.88734       -3.30578
H         -6.93842       -0.87572       -3.28020
H         -6.77572       -1.01362       -1.49760
H         -6.07283        0.38660       -2.35336
C        -10.05770        3.97962        0.95663
C         -7.58551        3.47713        0.78201
H         -9.11915        2.93552       -1.40775
H        -11.07310        3.55784        0.95925
H        -10.00620        4.73792        0.15666
H         -9.88372        4.48893        1.91661
H         -7.44737        4.20757       -0.03475
H         -6.82966        2.68698        0.68243
H         -7.42149        4.00319        1.73505
C        -10.65590        1.61305       -0.71625
C        -11.60570        2.20401       -1.55792
C        -12.90320        1.69108       -1.63642
C        -13.25930        0.58045       -0.86653
C        -12.31440       -0.01626       -0.02502
C        -11.01840        0.49658        0.05135
H         -9.09384        2.12642        1.52200
H        -11.32290        3.07910       -2.14951
H        -13.63830        2.16264       -2.29175
H        -14.27180        0.17771       -0.92506
H        -12.59080       -0.88361        0.57769
H        -10.26730        0.03402        0.69586
H         -9.07522       -0.26956       -2.17575

