%NProcShared=4
%Mem=10GB
%Chk=42.chk
#P wB97XD/LANL2DZ opt freq=noraman

previous condition without solvent

0 2 
O         -7.97319        0.59138        0.14860
N         -8.46148        1.18997       -0.88089
C         -8.24056        0.64392       -2.24522
C         -9.50985        2.22107       -0.75243
C         -7.23423        1.53342       -2.98256
C         -7.79104       -0.80730       -2.17566
C         -9.24128        3.26252        0.37628
H         -7.10839        1.18827       -4.02053
H         -6.25956        1.49046       -2.47234
H         -7.56857        2.58200       -3.00105
H         -7.66519       -1.19445       -3.19785
H         -8.53464       -1.41897       -1.64514
H         -6.83665       -0.88463       -1.63686
C        -10.20140        4.43956        0.13993
C         -7.79327        3.75711        0.24974
H         -9.45450        2.78860       -1.69942
H        -11.25140        4.11242        0.18759
H        -10.02470        4.90553       -0.84483
H        -10.04160        5.20503        0.91616
H         -7.59404        4.12710       -0.77073
H         -7.08362        2.94846        0.47658
H         -7.62409        4.58736        0.95470
C        -10.87260        1.55814       -0.70212
C        -11.91450        2.04013       -1.50310
C        -13.17700        1.44315       -1.46604
C        -13.40700        0.35281       -0.62438
C        -12.36910       -0.14077        0.17100
C        -11.10900        0.45810        0.13525
C         -9.48686        2.70371        1.78465
H        -11.72930        2.89501       -2.15827
H        -13.98110        1.82845       -2.09604
H        -14.39170       -0.11687       -0.59672
H        -12.54050       -1.00109        0.82066
H        -10.28820        0.07094        0.74137
H         -9.22085        0.69955       -2.75232
H         -9.28108        3.49605        2.52343
H         -8.82926        1.84706        1.98061
H        -10.53440        2.38683        1.90458

